CM 
CE
SY freq=18.1
SY H=20
SY L30=14.33758
SY L17=7.726804
SY L12=5.7
SY w30=(1.0*25.4/2)*1e-3
SY w17=(20/2)*1e-3
SY w12=(20/2)*1e-3
SY w2=(0.5*25.4/2)*1e-3
SY S1=0.501906
SY S2=0.336165
SY SF=0.2
GW	20	3	0.707	0	0	0.707	0	2
GC	0	0	1	w30	w30
GW	21	3	-0.707	0.707	0	-0.707	0.707	2
GC	0	0	1	w30	w30
GW	22	3	-0.707	-0.707	0	-0.707	-0.707	2
GC	0	0	1	w30	w30
GW	23	3	0.707	0	2	-0.707	0.707	2
GC	0	0	1	w30	w30
GW	24	3	-0.707	0.707	2	-0.707	-0.707	2
GC	0	0	1	w30	w30
GW	25	3	-0.707	-0.707	2	0.707	0	2
GC	0	0	1	w30	w30
GM	6	8	0	0	0	0	0	2	20
GW	75	8	-0.2	0.2	H-2	-0.2	0.2	H+2
GC	0	0	1	w30	w30
GE	1
LD	5	0	0	0	37700000
GN	2	0	0	0	17	0.015
EK
FR	0	0	0	0	freq	0
EN
